# generated using pymatgen
data_H4N
_symmetry_space_group_name_H-M   'P 1'
_cell_length_a   6.28643663
_cell_length_b   6.28643663
_cell_length_c   4.84069400
_cell_angle_alpha   90.00000000
_cell_angle_beta   90.00000000
_cell_angle_gamma   120.00000661
_symmetry_Int_Tables_number   1
_chemical_formula_structural   H4N
_chemical_formula_sum   'H4 N1'
_cell_volume   165.67131389
_cell_formula_units_Z   1
loop_
 _symmetry_equiv_pos_site_id
 _symmetry_equiv_pos_as_xyz
  1  'x, y, z'
loop_
 _atom_site_type_symbol
 _atom_site_label
 _atom_site_symmetry_multiplicity
 _atom_site_fract_x
 _atom_site_fract_y
 _atom_site_fract_z
 _atom_site_occupancy
  H  H0  1  0.33333300  0.66666700  0.84677000  1
  H  H1  1  0.51066600  0.75533300  0.55747300  1
  H  H2  1  0.24466700  0.75533300  0.55747300  1
  H  H3  1  0.24466700  0.48933400  0.55747300  1
  N  N4  1  0.33333300  0.66666700  0.63487500  1
