# generated using pymatgen
data_SnF6
_symmetry_space_group_name_H-M   'P 1'
_cell_length_a   6.28643663
_cell_length_b   6.28643663
_cell_length_c   4.84069400
_cell_angle_alpha   90.00000000
_cell_angle_beta   90.00000000
_cell_angle_gamma   120.00000661
_symmetry_Int_Tables_number   1
_chemical_formula_structural   SnF6
_chemical_formula_sum   'Sn1 F6'
_cell_volume   165.67131389
_cell_formula_units_Z   1
loop_
 _symmetry_equiv_pos_site_id
 _symmetry_equiv_pos_as_xyz
  1  'x, y, z'
loop_
 _atom_site_type_symbol
 _atom_site_label
 _atom_site_symmetry_multiplicity
 _atom_site_fract_x
 _atom_site_fract_y
 _atom_site_fract_z
 _atom_site_occupancy
  Sn  Sn0  1  0.00000000  0.00000000  0.00000000  1
  F  F1  1  0.30497100  0.15248500  0.76726800  1
  F  F2  1  0.84751500  0.15248500  0.76726800  1
  F  F3  1  0.84751500  0.69502900  0.76726800  1
  F  F4  1  0.15248500  0.84751500  0.23273200  1
  F  F5  1  0.69502900  0.84751500  0.23273200  1
  F  F6  1  0.15248500  0.30497100  0.23273200  1
